ipss.test.plugin.core/testData/psse/V32/aeso/2013_SML.raw
0,   100.00, 33, 0, 1, 60.00     / PSS(R)E-33.4    THU, JUN 27 2013   0:33
TASMO MODEL; OUTPUT GENERATED 2012-09-18 09:41:33
SWINGBUS 1520 FOR 2012LPBL-1:2013-06-01:1:203--1-0-0-0
     1,'JUDY515S    ',  69.0000,1,  26,  99,  17,1.04943, -15.2869,1.10000,0.90000,1.10000,0.90000
     2,'MAYERTH     ', 138.0000,1,  40,  99,  17,1.02776, -12.0092,1.10000,0.90000,1.10000,0.90000
     3,'COLINTO7    ', 138.0000,1,  27,  99,  17,1.02940, -12.8855,1.10000,0.90000,1.10000,0.90000
     4,'WESTLOC7    ', 138.0000,1,  27,  99,  17,1.02940, -10.9004,1.10000,0.90000,1.10000,0.90000
     5,'CLYDE  7    ', 138.0000,1,  27,  99,  17,1.02809, -11.2125,1.10000,0.90000,1.10000,0.90000
     6,'DICKSOA9    ',   4.1600,1,  39,  99,   7,1.04534, -15.3632,1.10000,0.90000,1.10000,0.90000
     7,'BOYLE  7    ', 138.0000,1,  27,  99,  17,1.03255, -13.5414,1.10000,0.90000,1.10000,0.90000
     8,'WHI 3647    ', 138.0000,1,  26,  99,  17,1.03584, -13.2425,1.10000,0.90000,1.10000,0.90000
     9,'WHITECO7    ', 138.0000,1,  26,  99,  17,1.03607, -13.5878,1.10000,0.90000,1.10000,0.90000
    10,'WHITECO8    ',  69.0000,1,  26,  99,  17,1.05994, -12.8644,1.10000,0.90000,1.10000,0.90000
    12,'FOX CREE    ', 138.0000,1,  24,  99,  17,1.03915, -15.3440,1.10000,0.90000,1.10000,0.90000
    13,'KAYBOB 7    ', 138.0000,1,  24,  99,  17,1.02460, -14.5774,1.10000,0.90000,1.10000,0.90000
    14,'WESGEN 9    ',  13.8000,2,  27,  99,   4,1.02500,  -7.3623,1.10000,0.90000,1.10000,0.90000
    15,'MTN COA7    ', 138.0000,1,  29,  99,  17,1.04479, -11.9516,1.10000,0.90000,1.10000,0.90000
    16,'FLATBUS7    ', 138.0000,1,  27,  99,  17,1.03245, -10.3219,1.10000,0.90000,1.10000,0.90000
    17,'COLD CR7    ', 138.0000,1,  29,  99,  17,1.05169, -12.3314,1.10000,0.90000,1.10000,0.90000
    18,'GULF RO7    ', 138.0000,1,  29,  99,  17,1.02440, -11.4068,1.10000,0.90000,1.10000,0.90000
    19,'WESGEN T    ', 138.0000,1,  27,  99,  17,1.03376, -10.2246,1.10000,0.90000,1.10000,0.90000
    20,'EDSON  7    ', 138.0000,1,  29,  99,  17,1.02861, -10.8727,1.10000,0.90000,1.10000,0.90000
    21,'WESGEN 7    ', 138.0000,1,  27,  99,   4,1.03494,  -9.8761,1.10000,0.90000,1.10000,0.90000
    26,'ENTWIST7    ', 138.0000,1,  40,  99,  17,1.01932, -10.3590,1.10000,0.90000,1.10000,0.90000
    27,'WABAMUN8    ',  69.0000,1,  40,  99,  17,1.02245,  -8.1901,1.10000,0.90000,1.10000,0.90000
    31,'FINCAST7    ', 138.0000,1,  52,  99,  17,1.01255, -20.1316,1.10000,0.90000,1.10000,0.90000
    32,'ONOWAY 8    ',  69.0000,1,  40,  99,  17,1.02303,  -8.2191,1.10000,0.90000,1.10000,0.90000
    33,'BRAZEAA9    ',  13.2000,2,  30,  99,  17,1.01212, -12.4843,1.10000,0.90000,1.10000,0.90000
    35,'LODGEPO7    ', 138.0000,1,  30,  99,  17,1.01215, -11.3351,1.10000,0.90000,1.10000,0.90000
    36,'BRAZEAU7    ', 138.0000,1,  30,  99,  17,1.02344, -11.0135,1.10000,0.90000,1.10000,0.90000
    37,'HRT EXP7    ', 138.0000,1,  32,  99,  25,1.02347, -13.9366,1.10000,0.90000,1.10000,0.90000
    38,'BRAZ OUT    ', 138.0000,1,  30,  99,  17,1.01980, -11.7543,1.10000,0.90000,1.10000,0.90000
    39,'CYNTHIA7    ', 138.0000,1,  30,  99,  17,1.01557, -12.5175,1.10000,0.90000,1.10000,0.90000
    40,'N CALDE7    ', 138.0000,1,  60,  99,  17,1.02672,  -9.8498,1.10000,0.90000,1.10000,0.90000
    41,'N BARRH7    ', 138.0000,1,  40,  99,  17,1.03133, -10.4956,1.10000,0.90000,1.10000,0.90000
    42,'AMOCO BR    ', 138.0000,1,  30,  99,  17,1.01759, -12.9695,1.10000,0.90000,1.10000,0.90000
    43,'SCOTF_4     ', 138.0000,2,  33,  99,  29,1.03000,  -9.8794,1.10000,0.90000,1.10000,0.90000
    44,'FT ASBN7    ', 138.0000,1,  40,  99,  17,1.03879, -12.3541,1.10000,0.90000,1.10000,0.90000
    47,'SHERWOO7    ', 138.0000,1,  60,  99,  17,1.02152, -10.0809,1.10000,0.90000,1.10000,0.90000
    48,'DIAM SH7    ', 138.0000,1,  33,  99,  17,1.03090,  -9.7876,1.10000,0.90000,1.10000,0.90000
    49,'KEYSTON7    ', 138.0000,1,  30,  99,  17,1.01873,  -6.6809,1.10000,0.90000,1.10000,0.90000
    50,'RIVERSID    ', 138.0000,2,  33,  99, 211,1.02557,  -9.8323,1.10000,0.90000,1.10000,0.90000
    51,'W PEMBI7    ', 138.0000,1,  30,  99,  17,1.01456, -13.0138,1.10000,0.90000,1.10000,0.90000
    52,'BLUERIDG    ', 138.0000,1,  26,  99,  17,1.03069, -13.2634,1.10000,0.90000,1.10000,0.90000
    53,'SANDYPT7    ', 138.0000,1,  48,  99,  17,1.02790, -21.8139,1.10000,0.90000,1.10000,0.90000
    55,'GULF OI7    ', 138.0000,1,  60,  99,  17,1.02479, -10.0114,1.10000,0.90000,1.10000,0.90000
    56,'IPPL ED7    ', 138.0000,1,  60,  99,  17,1.02560,  -9.9782,1.10000,0.90000,1.10000,0.90000
    57,'LAMOURE4    ', 240.0000,1,  33,  99,  17,1.04103,  -8.6102,1.10000,0.90000,1.10000,0.90000
    58,'FORT SA7    ', 138.0000,1,  60,  99,  17,1.02370,  -9.6634,1.10000,0.90000,1.10000,0.90000
    59,'REDWATE7    ', 138.0000,1,  33,  99,  17,1.01560, -10.1831,1.10000,0.90000,1.10000,0.90000
    60,'BEAMER 7    ', 138.0000,1,  33,  99,  17,1.02348,  -9.9971,1.10000,0.90000,1.10000,0.90000
    61,'UN CARB9    ', 138.0000,2,  33,  99, 191,1.02527,  -9.4979,1.10000,0.90000,1.10000,0.90000
    62,'SHERRIT7    ', 138.0000,1,  33,  99,  17,1.02358,  -9.6288,1.10000,0.90000,1.10000,0.90000
    63,'LAMOURE7    ', 138.0000,1,  33,  99,  17,1.02480,  -9.4700,1.10000,0.90000,1.10000,0.90000
    64,'BANFF  7    ', 138.0000,1,  44,  99,  17,1.02115, -19.6531,1.10000,0.90000,1.10000,0.90000
    65,'BARDO  7    ', 138.0000,1,  31,  99,  17,1.02484, -12.3076,1.10000,0.90000,1.10000,0.90000
    66,'IOL 737L    ', 138.0000,1,  60,  99,  17,1.02413, -10.0477,1.10000,0.90000,1.10000,0.90000
    67,'BRUDERH7    ', 138.0000,1,  33,  99,  17,1.02144,  -9.7531,1.10000,0.90000,1.10000,0.90000
    68,'N HOLDE7    ', 138.0000,1,  56,  99,  17,1.03559, -12.9968,1.10000,0.90000,1.10000,0.90000
    69,'IOL 738L    ', 138.0000,1,  60,  99,  17,1.01913, -10.3583,1.10000,0.90000,1.10000,0.90000
    70,'CAMROSE7    ', 138.0000,1,  31,  99,  17,1.01849, -12.4934,1.10000,0.90000,1.10000,0.90000
    71,'JARROW 8    ',  69.0000,1,  32,  99,  17,1.05065, -14.2605,1.10000,0.90000,1.10000,0.90000
    72,'JARROW 7    ', 138.0000,1,  32,  99,  17,1.03256, -14.2369,1.10000,0.90000,1.10000,0.90000
    73,'HARDIST7    ', 138.0000,1,  32,  99,  17,1.02371, -13.8973,1.10000,0.90000,1.10000,0.90000
    74,'METIS647    ', 138.0000,1,  37,  99,  17,1.02416, -15.2895,1.10000,0.90000,1.10000,0.90000
    75,'HUGHEND7    ', 138.0000,1,  37,  99,  17,1.01950, -14.8319,1.10000,0.90000,1.10000,0.90000
    76,'IPPL ST7    ', 138.0000,1,  56,  99,  17,1.05158, -11.8062,1.10000,0.90000,1.10000,0.90000
    77,'WAINWRI8    ',  69.0000,1,  32,  99,  17,1.05189, -14.3720,1.10000,0.90000,1.10000,0.90000
    78,'SEDGEWI7    ', 138.0000,1,  32,  99,  17,1.03920, -12.5243,1.10000,0.90000,1.10000,0.90000
    79,'BUFFALO7    ', 138.0000,1,  32,  99,  17,1.03141, -16.0157,1.10000,0.90000,1.10000,0.90000
    80,'BUCKLAK7    ', 138.0000,1,  30,  99,  17,1.00982,  -9.7703,1.10000,0.90000,1.10000,0.90000
    81,'BIGSTON4    ', 240.0000,1,  31,  99,  17,1.03753,  -8.6771,1.10000,0.90000,1.10000,0.90000
    82,'CHEVRON7    ', 138.0000,1,  24,  99,  17,1.02435, -14.5861,1.10000,0.90000,1.10000,0.90000
    83,'RBCUPIL7    ', 138.0000,1,  17,  99,  21,1.08618, -10.4483,1.10000,0.90000,1.10000,0.90000
    85,'MILLAR 7    ', 138.0000,1,  26,  99,  17,1.01500, -13.9271,1.10000,0.90000,1.10000,0.90000
    86,'PROVOST7    ', 138.0000,1,  37,  99,  17,1.01593, -15.6565,1.10000,0.90000,1.10000,0.90000
    87,'METIS644    ', 240.0000,1,  37,  99,  17,1.06009, -13.6976,1.10000,0.90000,1.10000,0.90000
    88,'BICKERD7    ', 138.0000,1,  29,  99,  17,1.03434, -10.4657,1.10000,0.90000,1.10000,0.90000
    89,'E EDMON7    ', 138.0000,1,  60,  99,  17,1.02636,  -9.9384,1.10000,0.90000,1.10000,0.90000
    90,'BICKERD4    ', 240.0000,1,  29,  99,  17,1.08389,  -8.7630,1.10000,0.90000,1.10000,0.90000
    91,'NISKU  7    ', 138.0000,1,  60,  99,  17,1.02172, -11.8192,1.10000,0.90000,1.10000,0.90000
    93,'WETASKI7    ', 138.0000,1,  31,  99,  17,1.02719, -11.8120,1.10000,0.90000,1.10000,0.90000
    94,'ERVICK 7    ', 138.0000,1,  31,  99,  17,1.01935, -12.3975,1.10000,0.90000,1.10000,0.90000
    95,'PONOKA 7    ', 138.0000,1,  31,  99,  17,1.01337, -13.3787,1.10000,0.90000,1.10000,0.90000
    96,'DEVON  7    ', 138.0000,1,  60,  99,  17,1.01563, -11.8345,1.10000,0.90000,1.10000,0.90000
    97,'ECKVILL7    ', 138.0000,1,  35,  99,  17,1.01308, -12.6030,1.10000,0.90000,1.10000,0.90000
    98,'RIMBEY 7    ', 138.0000,1,  35,  99,  17,1.00400, -13.0149,1.10000,0.90000,1.10000,0.90000
    99,'BENALTO7    ', 138.0000,1,  35,  99,  17,1.01965, -12.2926,1.10000,0.90000,1.10000,0.90000
   100,'ROCKY M7    ', 138.0000,1,  38,  99,  17,1.00207, -14.3383,1.10000,0.90000,1.10000,0.90000
   101,'COOKING7    ', 138.0000,1,  60,  99,  17,1.02200, -11.4681,1.10000,0.90000,1.10000,0.90000
   102,'BIGHORN1    ',  13.8000,2,  34,  99,  17,0.98358, -12.7137,1.10000,0.90000,1.10000,0.90000
   103,'BIG HOR7    ', 138.0000,1,  34,  99,  17,1.00325, -12.7137,1.10000,0.90000,1.10000,0.90000
   104,'STRACHA7    ', 138.0000,1,  38,  99,  17,1.00324, -15.1291,1.10000,0.90000,1.10000,0.90000
   105,'PIGEON 7    ', 138.0000,1,  31,  99,  17,1.02115, -11.7956,1.10000,0.90000,1.10000,0.90000
   106,'DEERLAN7    ', 138.0000,1,  33,  99,  17,1.01983,  -9.6036,1.10000,0.90000,1.10000,0.90000
   107,'SUNDRE 7    ', 138.0000,1,  38,  99,  17,0.97921, -16.6064,1.10000,0.90000,1.10000,0.90000
   108,'BIGHORN2    ',  13.8000,2,  34,  99,  17,0.97200,  -9.2463,1.10000,0.90000,1.10000,0.90000
   109,'DEERLAN4    ', 240.0000,1,  33,  99,  17,1.05398,  -8.8464,1.10000,0.90000,1.10000,0.90000
   110,'IPL EDM7    ', 138.0000,1,  60,  99,  17,1.02559,  -9.9792,1.10000,0.90000,1.10000,0.90000
   111,'SANDHIL7    ', 138.0000,1,  48,  99,  17,1.02788, -21.8305,1.10000,0.90000,1.10000,0.90000
   112,'SUNKEN7     ', 138.0000,1,  37,  99,  17,1.02403, -15.2889,1.10000,0.90000,1.10000,0.90000
   113,'BLACKFA7    ', 138.0000,1,  35,  99,  17,1.01402, -13.9826,1.10000,0.90000,1.10000,0.90000
   114,'LACOMBE7    ', 138.0000,1,  35,  99,  17,1.01087, -13.9247,1.10000,0.90000,1.10000,0.90000
   115,'S RED DE    ', 138.0000,1,  35,  99,  17,1.01519, -13.7242,1.10000,0.90000,1.10000,0.90000
   116,'W LACOMB    ', 138.0000,1,  35,  99,  17,1.01267, -13.8549,1.10000,0.90000,1.10000,0.90000
   117,'RED DE A    ', 138.0000,1,  35,  99,  17,1.01345, -13.5126,1.10000,0.90000,1.10000,0.90000
   118,'RED DE B    ', 138.0000,1,  35,  99,  17,1.01345, -13.5126,1.10000,0.90000,1.10000,0.90000
   119,'N RED D7    ', 138.0000,1,  35,  99,  17,1.01940, -13.9103,1.10000,0.90000,1.10000,0.90000
   120,'INNISFA7    ', 138.0000,1,  39,  99,  17,1.00471, -14.8354,1.10000,0.90000,1.10000,0.90000
   121,'OLDS   7    ', 138.0000,1,  39,  99,  17,0.99344, -16.4573,1.10000,0.90000,1.10000,0.90000
   122,'MADDEN 7    ', 138.0000,1,  39,  99,  17,0.99466, -17.6880,1.10000,0.90000,1.10000,0.90000
   123,'DIDSBURY    ', 138.0000,1,  39,  99,  17,0.99390, -17.0083,1.10000,0.90000,1.10000,0.90000
   124,'HARMATT7    ', 138.0000,1,  39,  99,  17,0.99155, -17.0495,1.10000,0.90000,1.10000,0.90000
   125,'YASAA7      ', 138.0000,1,  60,  99,  17,1.02518,  -9.9916,1.10000,0.90000,1.10000,0.90000
   126,'SHELL H7    ', 138.0000,1,  39,  99,  17,0.99214, -17.0644,1.10000,0.90000,1.10000,0.90000
   127,'BEDDING2    ', 138.0000,1,   6,  99,   3,1.02334, -17.8922,1.10000,0.90000,1.10000,0.90000
   128,'ELLERSLI    ', 240.0000,1,  60,  99,  17,1.04476,  -5.6045,1.10000,0.90000,1.10000,0.90000
   130,'SUND#3GN    ',  20.0000,2,  40,  99,  17,1.01600,   1.1239,1.10000,0.90000,1.10000,0.90000
   131,'SUNDANA8    ',  69.0000,1,  40,  99,  17,1.01083,  -6.7277,1.10000,0.90000,1.10000,0.90000
   132,'SUNDANC7    ', 138.0000,1,  40,  99,  17,1.02340,  -4.8044,1.10000,0.90000,1.10000,0.90000
   133,'WABAMUN4    ', 240.0000,1,  40,  99,  17,1.06857,  -6.2799,1.10000,0.90000,1.10000,0.90000
   134,'WABAMUN7    ', 138.0000,1,  40,  99,  17,1.02516,  -8.4081,1.10000,0.90000,1.10000,0.90000
   135,'SUNDANC4    ', 240.0000,1,  40,  99,  17,1.07663,  -5.1847,1.10000,0.90000,1.10000,0.90000
   136,'E EDMON4    ', 240.0000,1,  60,  99,  17,1.03825,  -6.5475,1.10000,0.90000,1.10000,0.90000
   137,'N CALDE4    ', 240.0000,1,  60,  99,  17,1.04326,  -7.8664,1.10000,0.90000,1.10000,0.90000
   138,'N BARRH4    ', 240.0000,1,  40,  99,  17,1.09637,  -8.9888,1.10000,0.90000,1.10000,0.90000
   141,'DALEHUR7    ', 138.0000,1,  29,  99,  17,1.04545, -11.9101,1.10000,0.90000,1.10000,0.90000
   142,'KINGMAN7    ', 138.0000,1,  31,  99,  17,1.02171, -12.4335,1.10000,0.90000,1.10000,0.90000
   144,'ALGAR  7    ', 138.0000,1,  61,  99,   1,1.06906,  -5.6867,1.10000,0.90000,1.10000,0.90000
   147,'GAETZ  4    ', 240.0000,1,  35,  99,  17,1.03914, -11.9313,1.10000,0.90000,1.10000,0.90000
   148,'GAETZ  7    ', 138.0000,1,  35,  99,  17,1.02423, -13.8844,1.10000,0.90000,1.10000,0.90000
   150,'WILLESD4    ', 240.0000,1,  30,  99,  17,1.05703,  -9.7313,1.10000,0.90000,1.10000,0.90000
   151,'BRAZ#1 9    ',  13.8000,2,  30,  99,  17,0.98000,  -4.8292,1.10000,0.90000,1.10000,0.90000
   152,'RED DEE4    ', 240.0000,1,  35,  99,  17,1.04921, -11.9526,1.10000,0.90000,1.10000,0.90000
   153,'BRAZEAU4    ', 240.0000,1,  30,  99,  17,1.05725,  -9.2983,1.10000,0.90000,1.10000,0.90000
   154,'BRAZ#2 9    ',  13.8000,2,  30,  99,  17,0.98662,  -9.2983,1.10000,0.90000,1.10000,0.90000
   155,'BENALTO4    ', 240.0000,1,  35,  99,  17,1.05350, -10.2412,1.10000,0.90000,1.10000,0.90000
   156,'E CROSS4    ', 240.0000,1,  57,  99,  17,1.04897, -14.6636,1.10000,0.90000,1.10000,0.90000
   157,'COCHIN 8    ',  69.0000,1,  32,  99, 241,1.05182, -14.3748,1.10000,0.90000,1.10000,0.90000
   158,'LANGDON2    ', 500.0000,1,   6,  99,  17,1.04617, -12.7515,1.10000,0.90000,1.10000,0.90000
   159,'LANGDON4    ', 240.0000,1,   6,  99,  17,1.05400, -14.3718,1.10000,0.90000,1.10000,0.90000
   160,'JANET  4    ', 240.0000,1,   6,  99,  17,1.04135, -15.3959,1.10000,0.90000,1.10000,0.90000
   161,'SARCEE 4    ', 240.0000,1,   6,  99,  17,1.02978, -16.2329,1.10000,0.90000,1.10000,0.90000
   162,'E CALGAR    ', 240.0000,1,   6,  99,  17,1.03285, -16.1269,1.10000,0.90000,1.10000,0.90000
   163,'SAGITAW4    ', 240.0000,1,  26,  99,  17,1.05804, -11.5804,1.10000,0.90000,1.10000,0.90000
   164,'SAGITAW7    ', 138.0000,1,  26,  99,  17,1.03676, -12.9259,1.10000,0.90000,1.10000,0.90000
   165,'PEIGAN 4    ', 240.0000,1,  53,  99, 191,1.06099, -13.3831,1.10000,0.90000,1.10000,0.90000
   166,'PEIGAN 7    ', 138.0000,1,  53,  99, 191,1.01296, -10.7477,1.10000,0.90000,1.10000,0.90000
   167,'N LETHB4    ', 240.0000,1,  54,  99,  17,1.06698, -14.8770,1.10000,0.90000,1.10000,0.90000
   168,'SUNSHIN8    ',  69.0000,1,  44,  99,  17,1.00528, -24.2137,1.10000,0.90000,1.10000,0.90000
   169,'CAN CEM7    ', 138.0000,1,  44,  99,  17,1.02165, -18.9075,1.10000,0.90000,1.10000,0.90000
   170,'COCHRAN7    ', 138.0000,1,  44,  99,  17,1.00651, -19.1646,1.10000,0.90000,1.10000,0.90000
   171,'SEEBE  7    ', 138.0000,1,  44,  99, 191,1.02200, -18.3696,1.10000,0.90000,1.10000,0.90000
   172,'HORS GEN    ',  12.0000,2,  44,  99,  17,1.02640, -15.2968,1.10000,0.90000,1.10000,0.90000
   173,'BRETV A7    ', 138.0000,1,  60,  99,  17,1.02479, -10.0099,1.10000,0.90000,1.10000,0.90000
   174,'SPRAY G1    ',  13.2000,2,  44,  99,  17,1.02531, -19.0681,1.10000,0.90000,1.10000,0.90000
   175,'CASCADE7    ', 138.0000,1,  44,  99, 194,1.02294, -19.5575,1.10000,0.90000,1.10000,0.90000
   176,'CASCADE9    ',  13.2000,2,  44,  99, 194,1.03764, -19.5102,1.10000,0.90000,1.10000,0.90000
   177,'AIRDRIE     ', 138.0000,1,  57,  99,  17,1.01511, -17.8437,1.10000,0.90000,1.10000,0.90000
   178,'BANFF  8    ',  69.0000,1,  44,  99,  17,1.00760, -24.0693,1.10000,0.90000,1.10000,0.90000
   179,'MARIANA7    ', 138.0000,1,  61,  99,   1,1.07151,  -6.0334,1.10000,0.90000,1.10000,0.90000
   180,'GHOST  7    ', 138.0000,1,  44,  99,  17,1.01209, -18.3876,1.10000,0.90000,1.10000,0.90000
   181,'GHOST A9    ',  13.2000,2,  44,  99,  17,1.00000, -14.0143,1.10000,0.90000,1.10000,0.90000
   183,'BEARSPWB    ',  13.2000,2,  44,  99,  17,1.04844, -18.0694,1.10000,0.90000,1.10000,0.90000
   184,'BEARSPAW    ', 138.0000,1,  44,  99,  17,1.01189, -19.0271,1.10000,0.90000,1.10000,0.90000
   187,'BEDDING1    ', 240.0000,1,   6,  99,   3,1.03576, -16.2089,1.10000,0.90000,1.10000,0.90000
   188,'ANG COCA    ',  25.0000,1,  44,  99,  17,1.04706, -20.2528,1.10000,0.90000,1.10000,0.90000
   189,'ANG COCB    ',  13.8000,2,  44,  99,  17,1.00011, -22.3549,1.10000,0.90000,1.10000,0.90000
   190,'SPRAY G2    ',  13.2000,2,  44,  99,  17,1.02531, -19.0681,1.10000,0.90000,1.10000,0.90000
   191,'ANG COCH    ', 138.0000,1,  44,  99,  17,1.00474, -19.1971,1.10000,0.90000,1.10000,0.90000
   192,'NELSON L    ', 138.0000,1,  31,  99,  17,1.01038, -13.5220,1.10000,0.90000,1.10000,0.90000
   193,'KANANAS7    ', 138.0000,1,  44,  99,  17,1.02289, -18.3119,1.10000,0.90000,1.10000,0.90000
   194,'LAKE LO8    ',  69.0000,1,  44,  99,  17,0.98546, -24.6288,1.10000,0.90000,1.10000,0.90000
   195,'RUNDLE S    ', 138.0000,1,  44,  99,  17,1.02542, -19.1439,1.10000,0.90000,1.10000,0.90000
   196,'KANANAS9    ',  12.0000,2,  44,  99,  17,1.04786, -14.7914,1.10000,0.90000,1.10000,0.90000
   197,'RUNDLE G    ',  13.8000,2,  44,  99,  17,1.04761, -19.2302,1.10000,0.90000,1.10000,0.90000
   198,'BALZAC 7    ', 138.0000,1,   6,  99,  17,1.02347, -17.9190,1.10000,0.90000,1.10000,0.90000
   199,'SHELL J7    ', 138.0000,1,  44,  99,  17,1.00976, -18.6410,1.10000,0.90000,1.10000,0.90000
   201,'JUMPPND7    ', 138.0000,1,  44,  99,  17,1.01702, -18.6140,1.10000,0.90000,1.10000,0.90000
   202,'SARCEE 7    ', 138.0000,1,   6,  99,  17,1.01613, -18.4808,1.10000,0.90000,1.10000,0.90000
   203,'SARCEE C    ',  13.8000,1,   6,  99,  17,1.04191, -18.5508,1.10000,0.90000,1.10000,0.90000
   204,'MCMILLA4    ', 240.0000,1,  61,  99,   1,1.11749,  -5.3571,1.10000,0.90000,1.10000,0.90000
   205,'AMOCO R7    ', 138.0000,1,  38,  99,  17,0.97933, -16.4089,1.10000,0.90000,1.10000,0.90000
   207,'JANET  7    ', 138.0000,1,   6,  99,  17,1.02518, -18.0483,1.10000,0.90000,1.10000,0.90000
   208,'ENMX2S 7    ', 138.0000,1,   6,  99,   3,1.01183, -18.8566,1.10000,0.90000,1.10000,0.90000
   209,'BRETONA1    ', 138.0000,1,  60,  99,  17,1.02331, -10.5256,1.10000,0.90000,1.10000,0.90000
   210,'SJPC_TP     ', 138.0000,1,  44,  99,  17,1.00995, -18.6326,1.10000,0.90000,1.10000,0.90000
   211,'MOUNT A7    ', 138.0000,1,  44,  99,  17,1.02491, -18.7180,1.10000,0.90000,1.10000,0.90000
   213,'HAIGRIVE    ', 138.0000,1,  17,  99,   1,1.09723, -13.1505,1.10000,0.90000,1.10000,0.90000
   214,'POCATEA9    ',  13.8000,2,  44,  99,  17,0.98032, -17.2862,1.10000,0.90000,1.10000,0.90000
   215,'TEX.W.P7    ', 138.0000,1,  30,  99,  17,1.01344, -12.3294,1.10000,0.90000,1.10000,0.90000
   216,'BARRIER7    ', 138.0000,1,  44,  99,  17,1.02398, -18.4464,1.10000,0.90000,1.10000,0.90000
   217,'SJP_CRK     ', 138.0000,1,  44,  99,  17,1.00989, -18.6351,1.10000,0.90000,1.10000,0.90000
   218,'BLACKMUD    ', 138.0000,1,  60,  99,  17,1.01929, -11.8703,1.10000,0.90000,1.10000,0.90000
   219,'KILLARN7    ', 138.0000,1,  37,  99,  17,1.01280, -18.3663,1.10000,0.90000,1.10000,0.90000
   220,'HAYTER 7    ', 138.0000,1,  37,  99,  17,0.99834, -18.9624,1.10000,0.90000,1.10000,0.90000
   221,'CRR-W1      ', 240.0000,1,  53,  99,  58,1.05264, -12.7844,1.10000,0.90000,1.10000,0.90000
   222,'BARRIER9    ',  13.2000,2,  44,  99,  17,1.03000, -14.1648,1.10000,0.90000,1.10000,0.90000
   223,'PINCHER8    ',  69.0000,1,  53,  99,  17,1.02273, -11.6239,1.10000,0.90000,1.10000,0.90000
   224,'PINCHER7    ', 138.0000,1,  53,  99,  17,1.05377, -11.5564,1.10000,0.90000,1.10000,0.90000
   225,'WARE JCT    ', 240.0000,1,  47,  99,  17,1.07610, -15.9958,1.10000,0.90000,1.10000,0.90000
   226,'DRYWOOD8    ',  69.0000,1,  55,  99,  17,1.02445, -12.9004,1.10000,0.90000,1.10000,0.90000
   227,'SHELL WA    ',  69.0000,1,  55,  99,  17,1.00911, -13.0979,1.10000,0.90000,1.10000,0.90000
...
0 / END OF BUS DATA, BEGIN LOAD DATA
    14,'99',1,  27,  99,     0.052,     0.026,     0.000,     0.000,     0.000,     0.000,   4,1,0
    33,'99',1,  30,  99,     3.020,     1.510,     0.000,     0.000,     0.000,     0.000,  17,1,0
    43,'37',1,  33,  37,   195.055,    97.527,     0.000,     0.000,     0.000,     0.000,  29,1,0
    43,'99',1,  33,  99,    30.765,    15.384,     0.000,     0.000,     0.000,     0.000,  29,1,0
    50,'37',1,  33,  37,    14.700,     7.350,     0.000,     0.000,     0.000,     0.000, 211,1,0
    50,'99',1,  33,  99,     8.885,     4.443,     0.000,     0.000,     0.000,     0.000, 211,1,0
    61,'37',1,  33,  37,    32.187,    16.093,     0.000,     0.000,     0.000,     0.000, 191,1,0
    61,'99',1,  33,  99,    35.908,    17.955,     0.000,     0.000,     0.000,     0.000, 191,1,0
    79,'99',1,  32,  99,     0.001,     0.001,     0.000,     0.000,     0.000,     0.000,  17,1,0
    80,'99',1,  30,  99,     0.034,     0.017,     0.000,     0.000,     0.000,     0.000,  17,1,0
   127,'99',1,   6,  99,     6.607,     3.304,     0.000,     0.000,     0.000,     0.000,   3,1,0
   130,'36',1,  40,  36,    20.100,    10.100,     0.000,     0.000,     0.000,     0.000,  17,1,0
   165,'99',1,  53,  99,     0.000,     0.000,     0.000,     0.000,     0.000,     0.000, 191,1,0
   176,'99',1,  44,  99,     0.443,     0.222,     0.000,     0.000,     0.000,     0.000, 194,1,0
   180,'99',1,  44,  99,     5.150,     2.576,     0.000,     0.000,     0.000,     0.000,  17,1,0
   188,'99',1,  44,  99,     5.247,     2.624,     0.000,     0.000,     0.000,     0.000,  17,1,0
   189,'99',1,  44,  99,     9.116,     4.559,     0.000,     0.000,     0.000,     0.000,  17,1,0
   197,'99',1,  44,  99,     0.146,     0.073,     0.000,     0.000,     0.000,     0.000,  17,1,0
   214,'99',1,  44,  99,     0.091,     0.046,     0.000,     0.000,     0.000,     0.000,  17,1,0
   222,'99',1,  44,  99,     0.044,     0.022,     0.000,     0.000,     0.000,     0.000,  17,1,0
   234,'99',1,  53,  99,     0.020,     0.010,     0.000,     0.000,     0.000,     0.000,  44,1,0
   239,'99',1,  46,  99,     6.048,     3.024,     0.000,     0.000,     0.000,     0.000,  17,1,0
   248,'37',1,  28,  37,    23.643,    11.822,     0.000,     0.000,     0.000,     0.000,  36,1,0
   255,'99',1,  53,  99,     0.037,     0.019,     0.000,     0.000,     0.000,     0.000,  17,1,0
   265,'99',1,  53,  99,     0.037,     0.019,     0.000,     0.000,     0.000,     0.000,  17,1,0
   268,'99',1,  48,  99,     3.030,     1.515,     0.000,     0.000,     0.000,     0.000,  17,1,0
   271,'99',1,   4,  99,     0.000,     0.000,     0.000,     0.000,     0.000,     0.000,  17,1,0
   274,'99',1,  52,  99,    10.318,     5.160,     0.000,     0.000,     0.000,     0.000,  17,1,0
   287,'99',1,  48,  99,     4.329,     2.165,     0.000,     0.000,     0.000,     0.000,  17,1,0
   288,'99',1,  48,  99,     2.164,     1.082,     0.000,     0.000,     0.000,     0.000,  17,1,0
   289,'99',1,  48,  99,     2.814,     1.407,     0.000,     0.000,     0.000,     0.000,  17,1,0
   296,'99',1,  53,  99,     0.001,     0.001,     0.000,     0.000,     0.000,     0.000,  17,1,0
   305,'99',1,  27,  99,     8.763,     4.382,     0.000,     0.000,     0.000,     0.000,  17,1,0
   330,'99',1,  30,  99,    16.816,     8.408,     0.000,     0.000,     0.000,     0.000,  17,1,0
   342,'36',1,  40,  36,    20.600,    10.300,     0.000,     0.000,     0.000,     0.000,  17,1,0
   345,'36',1,  40,  36,    21.400,    10.700,     0.000,     0.000,     0.000,     0.000,  17,1,0
   346,'99',1,  53,  99,     0.008,     0.004,     0.000,     0.000,     0.000,     0.000,  17,1,0
   348,'99',1,  61,  99,     0.786,     0.393,     0.000,     0.000,     0.000,     0.000,  17,1,0
   350,'36',1,  40,  36,    24.400,    12.200,     0.000,     0.000,     0.000,     0.000,  17,1,0
   375,'99',1,  44,  99,     0.145,     0.072,     0.000,     0.000,     0.000,     0.000,  17,1,0
   380,'99',1,  44,  99,     2.191,     1.096,     0.000,     0.000,     0.000,     0.000,  17,1,0
   383,'37',1,  35,  37,    45.707,    22.853,     0.000,     0.000,     0.000,     0.000,  17,1,0
   383,'99',1,  35,  99,    71.396,    35.700,     0.000,     0.000,     0.000,     0.000,  17,1,0
   403,'36',1,  40,  36,    14.000,     7.000,     0.000,     0.000,     0.000,     0.000,  17,1,0
   405,'36',1,  61,  36,     3.000,     1.500,     0.000,     0.000,     0.000,     0.000, 251,1,0
   405,'37',1,  61,  37,     9.052,     4.526,     0.000,     0.000,     0.000,     0.000, 251,1,0
   407,'99',1,  54,  99,     0.007,     0.003,     0.000,     0.000,     0.000,     0.000,  17,1,0
   414,'99',1,  55,  99,     0.005,     0.002,     0.000,     0.000,     0.000,     0.000,  17,1,0
   422,'36',1,  40,  36,    23.100,    11.600,     0.000,     0.000,     0.000,     0.000,  17,1,0
   424,'36',1,  40,  36,    23.500,    11.700,     0.000,     0.000,     0.000,     0.000,  17,1,0
   440,'99',1,  31,  99,     0.007,     0.003,     0.000,     0.000,     0.000,     0.000,  17,1,0
   478,'99',1,  44,  99,    14.353,     7.177,     0.000,     0.000,     0.000,     0.000,  17,1,0
   479,'99',1,  44,  99,     0.146,     0.073,     0.000,     0.000,     0.000,     0.000,  17,1,0
   490,'36',1,  40,  36,    39.100,    19.600,     0.000,     0.000,     0.000,     0.000,   5,1,0
   491,'36',1,  40,  36,    28.700,    14.400,     0.000,     0.000,     0.000,     0.000,   5,1,0
   492,'36',1,  40,  36,    28.500,    14.300,     0.000,     0.000,     0.000,     0.000,   5,1,0
   666,'99',1,  58,  99,     0.388,     0.194,     0.000,     0.000,     0.000,     0.000,   1,1,0
   680,'37',1,   4,  37,    71.385,    35.692,     0.000,     0.000,     0.000,     0.000,  17,1,0
  1029,'99',1,  17,  99,    11.376,     5.689,     0.000,     0.000,     0.000,     0.000,   1,1,0
  1031,'99',1,  17,  99,     6.357,     3.179,     0.000,     0.000,     0.000,     0.000,   1,1,0
  1032,'99',1,  17,  99,    15.726,     7.864,     0.000,     0.000,     0.000,     0.000,   1,1,0
  1050,'99',1,  19,  99,     1.769,     0.885,     0.000,     0.000,     0.000,     0.000,   1,1,0
  1089,'34',1,  19,  34,    27.000,    12.000,     0.000,     0.000,     0.000,     0.000,  33,1,0
  1101,'37',1,  20,  37,     3.701,     1.851,     0.000,     0.000,     0.000,     0.000,  30,1,0
  1146,'37',1,  20,  37,    14.816,     7.408,     0.000,     0.000,     0.000,     0.000,  39,1,0
  1148,'36',1,  22,  36,     9.000,     4.500,     0.000,     0.000,     0.000,     0.000,   1,1,0
  1167,'99',1,  23,  99,     0.019,     0.010,     0.000,     0.000,     0.000,     0.000,   1,1,0
  1168,'99',1,  23,  99,     0.025,     0.013,     0.000,     0.000,     0.000,     0.000,   1,1,0
  1171,'99',1,  23,  99,     0.293,     0.147,     0.000,     0.000,     0.000,     0.000,   1,1,0
  1173,'35',1,  23,  35,     1.894,     0.000,     0.000,     0.000,     0.000,     0.000,   1,1,0
  1173,'99',1,  23,  99,     0.293,     0.147,     0.000,     0.000,     0.000,     0.000,   1,1,0
  1200,'99',1,  59,  99,     0.151,     0.076,     0.000,     0.000,     0.000,     0.000,   1,1,0
  1205,'37',1,  59,  37,   390.422,   195.211,     0.000,     0.000,     0.000,     0.000,   9,1,0
  1208,'37',1,  59,  37,   334.379,   167.189,     0.000,     0.000,     0.000,     0.000,  10,1,0
  1208,'99',1,  59,  99,     0.003,     0.002,     0.000,     0.000,     0.000,     0.000,  10,1,0
  1224,'99',1,  59,  99,     7.460,     3.730,     0.000,     0.000,     0.000,     0.000,   1,1,0
  1231,'99',1,  21,  99,    23.834,    11.918,     0.000,     0.000,     0.000,     0.000,   1,1,0
  1232,'99',1,  21,  99,    23.834,    11.918,     0.000,     0.000,     0.000,     0.000,   1,1,0
  1236,'35',1,  59,  35,     2.506,     0.000,     0.000,     0.000,     0.000,     0.000,  40,1,0
  1236,'37',1,  59,  37,    25.703,    12.851,     0.000,     0.000,     0.000,     0.000,  40,1,0
  1236,'99',1,  59,  99,     0.388,     0.194,     0.000,     0.000,     0.000,     0.000,  40,1,0
  1241,'37',1,  61,  37,    94.278,    47.139,     0.000,     0.000,     0.000,     0.000,  99,1,0
  1251,'37',1,  58,  37,    61.554,    30.777,     0.000,     0.000,     0.000,     0.000, 261,1,0
  1251,'99',1,  58,  99,     6.896,     3.448,     0.000,     0.000,     0.000,     0.000, 261,1,0
  1262,'37',1,  58,  37,    19.438,     9.719,     0.000,     0.000,     0.000,     0.000, 261,1,0
  1262,'99',1,  58,  99,     1.543,     0.771,     0.000,     0.000,     0.000,     0.000, 261,1,0
  1274,'37',1,  58,  37,     9.212,     4.606,     0.000,     0.000,     0.000,     0.000,   1,1,0
  1289,'37',1,  59,  37,    67.761,    33.881,     0.000,     0.000,     0.000,     0.000, 481,1,0
  1301,'36',1,  28,  36,     2.600,     1.400,     0.000,     0.000,     0.000,     0.000,  63,1,0
  1301,'37',1,  28,  37,    38.666,    19.333,     0.000,     0.000,     0.000,     0.000,  63,1,0
  1301,'99',1,  28,  99,     4.819,     2.410,     0.000,     0.000,     0.000,     0.000,  63,1,0
  1302,'37',1,  28,  37,    73.175,    36.587,     0.000,     0.000,     0.000,     0.000,   1,1,0
  1383,'99',1,  13,  99,     0.001,     0.001,     0.000,     0.000,     0.000,     0.000,   1,1,0
  1471,'99',1,  42,  99,     6.910,     3.455,     0.000,     0.000,     0.000,     0.000,   1,1,0
  1473,'34',1,  48,  34,    31.600,     0.000,     0.000,     0.000,     0.000,     0.000,   1,1,0
  1474,'99',1,  42,  99,     8.843,     4.422,     0.000,     0.000,     0.000,     0.000,   1,1,0
  1482,'36',1,  43,  36,     6.700,     3.400,     0.000,     0.000,     0.000,     0.000,   1,1,0
  1484,'99',1,  43,  99,     0.000,     0.000,     0.000,     0.000,     0.000,     0.000,   1,1,0
  1487,'36',1,  43,  36,     8.800,     4.400,     0.000,     0.000,     0.000,     0.000,   1,1,0
  1495,'35',1,  36,  35,    32.292,     0.000,     0.000,     0.000,     0.000,     0.000,   1,1,0
  1495,'36',1,  36,  36,     3.400,     1.700,     0.000,     0.000,     0.000,     0.000,   1,1,0
  1496,'36',1,  36,  36,     8.600,     4.300,     0.000,     0.000,     0.000,     0.000,   1,1,0
  1497,'36',1,  36,  36,    16.500,     8.200,     0.000,     0.000,     0.000,     0.000,   1,1,0
  1503,'34',1,  15,  34,    10.000,     3.300,     0.000,     0.000,     0.000,     0.000,   2,1,0
  1504,'34',1,  15,  34,    10.000,     3.300,     0.000,     0.000,     0.000,     0.000,   2,1,0
  1505,'34',1,  15,  34,    10.000,     3.300,     0.000,     0.000,     0.000,     0.000,   2,1,0
  1506,'34',1,  15,  34,    10.000,     3.300,     0.000,     0.000,     0.000,     0.000,   2,1,0
  1681,'99',1,  59,  99,    26.497,    13.250,     0.000,     0.000,     0.000,     0.000,  36,1,0
  1683,'99',1,  59,  99,     7.227,     3.614,     0.000,     0.000,     0.000,     0.000,  36,1,0
  1684,'99',1,  59,  99,    26.497,    13.250,     0.000,     0.000,     0.000,     0.000,  36,1,0
  2017,'99',1,  44,  99,     3.441,     1.720,     0.000,     0.000,     0.000,     0.000,  17,1,0
  2018,'99',1,  44,  99,     3.441,     1.720,     0.000,     0.000,     0.000,     0.000,  17,1,0
  2053,'99',1,  48,  99,     3.098,     1.549,     0.000,     0.000,     0.000,     0.000,  17,1,0
  2060,'99',1,  33,  99,    12.333,     6.167,     0.000,     0.000,     0.000,     0.000,  17,1,0
  2062,'99',1,  33,  99,     8.021,     4.011,     0.000,     0.000,     0.000,     0.000,  17,1,0
  2063,'99',1,  33,  99,     8.223,     4.112,     0.000,     0.000,     0.000,     0.000,  17,1,0
  2085,'99',1,  26,  99,    28.316,    14.159,     0.000,     0.000,     0.000,     0.000,  17,1,0
  2089,'99',1,  60,  99,    12.399,     6.200,     0.000,     0.000,     0.000,     0.000,  17,1,0
  2103,'99',1,  34,  99,     1.809,     0.905,     0.000,     0.000,     0.000,     0.000,  17,1,0
  2125,'99',1,  60,  99,     9.373,     4.687,     0.000,     0.000,     0.000,     0.000,  17,1,0
  2169,'99',1,  44,  99,     4.969,     2.485,     0.000,     0.000,     0.000,     0.000,  17,1,0
  2173,'99',1,  60,  99,     4.983,     2.492,     0.000,     0.000,     0.000,     0.000,  17,1,0
  2198,'99',1,   6,  99,     6.378,     3.189,     0.000,     0.000,     0.000,     0.000,  17,1,0
  2208,'99',1,   6,  99,     7.150,     3.575,     0.000,     0.000,     0.000,     0.000,   3,1,0
  2218,'99',1,  60,  99,     5.453,     2.727,     0.000,     0.000,     0.000,     0.000,  17,1,0
  2231,'99',1,  55,  99,     2.123,     1.062,     0.000,     0.000,     0.000,     0.000,  17,1,0
  2242,'99',1,  46,  99,    10.855,     5.428,     0.000,     0.000,     0.000,     0.000,  17,1,0
  2260,'99',1,  48,  99,    12.689,     6.345,     0.000,     0.000,     0.000,     0.000,  17,1,0
  2266,'99',1,  48,  99,     3.391,     1.695,     0.000,     0.000,     0.000,     0.000,  17,1,0
  2269,'99',1,  52,  99,     7.602,     3.801,     0.000,     0.000,     0.000,     0.000,  17,1,0
  2284,'99',1,   4,  99,     2.343,     1.172,     0.000,     0.000,     0.000,     0.000,  17,1,0
  2297,'99',1,  32,  99,     7.563,     3.782,     0.000,     0.000,     0.000,     0.000,  17,1,0
  2298,'99',1,  26,  99,    32.688,    16.345,     0.000,     0.000,     0.000,     0.000,  17,1,0
  2311,'99',1,  60,  99,    13.179,     6.590,     0.000,     0.000,     0.000,     0.000,  17,1,0
  2315,'99',1,  45,  99,     2.876,     1.438,     0.000,     0.000,     0.000,     0.000,  17,1,0
  2340,'99',1,  45,  99,     6.755,     3.378,     0.000,     0.000,     0.000,     0.000,  17,1,0
  2344,'99',1,  48,  99,     2.318,     1.159,     0.000,     0.000,     0.000,     0.000,  17,1,0
  2357,'99',1,  60,  99,     8.880,     4.440,     0.000,     0.000,     0.000,     0.000,  17,1,0
  2364,'99',1,  40,  99,     7.526,     3.764,     0.000,     0.000,     0.000,     0.000,  17,1,0
  2366,'99',1,  60,  99,     6.768,     3.384,     0.000,     0.000,     0.000,     0.000,  17,1,0
  2368,'99',1,  29,  99,     5.329,     2.665,     0.000,     0.000,     0.000,     0.000,  17,1,0
  2369,'99',1,  61,  99,    11.747,     5.874,     0.000,     0.000,     0.000,     0.000,  17,1,0
  2370,'99',1,  61,  99,    15.572,     7.787,     0.000,     0.000,     0.000,     0.000,  17,1,0
  2373,'99',1,  32,  99,     3.817,     1.909,     0.000,     0.000,     0.000,     0.000,  17,1,0
  2384,'99',1,  35,  99,    32.822,    16.412,     0.000,     0.000,     0.000,     0.000,  17,1,0
  2389,'99',1,  54,  99,     0.012,     0.006,     0.000,     0.000,     0.000,     0.000,  10,1,0
  2392,'37',1,  27,  37,    53.563,    26.782,     0.000,     0.000,     0.000,     0.000, 301,1,0
  2397,'99',1,  29,  99,    11.460,     5.731,     0.000,     0.000,     0.000,     0.000,  17,1,0
  2399,'99',1,  47,  99,     9.487,     4.744,     0.000,     0.000,     0.000,     0.000,  17,1,0
  2402,'99',1,  53,  99,     0.029,     0.015,     0.000,     0.000,     0.000,     0.000, 192,1,0
  2415,'99',1,  29,  99,     1.652,     0.826,     0.000,     0.000,     0.000,     0.000,  17,1,0
  2417,'99',1,  27,  99,    13.875,     6.938,     0.000,     0.000,     0.000,     0.000,  17,1,0
  2503,'99',1,  57,  99,     0.102,     0.051,     0.000,     0.000,     0.000,     0.000,   3,1,0
  2514,'99',1,  60,  99,     3.186,     1.593,     0.000,     0.000,     0.000,     0.000,   5,1,0
  2515,'99',1,  60,  99,     9.786,     4.893,     0.000,     0.000,     0.000,     0.000,  17,1,0
  2550,'99',1,   6,  99,     8.557,     4.279,     0.000,     0.000,     0.000,     0.000,   3,1,0
  2551,'99',1,   6,  99,     7.759,     3.880,     0.000,     0.000,     0.000,     0.000,   3,1,0
  2555,'99',1,   6,  99,     9.284,     4.642,     0.000,     0.000,     0.000,     0.000,   3,1,0
  2556,'99',1,   6,  99,     2.505,     1.252,     0.000,     0.000,     0.000,     0.000,   3,1,0
  2559,'99',1,   6,  99,     4.665,     2.333,     0.000,     0.000,     0.000,     0.000,   3,1,0
  2561,'99',1,   6,  99,     9.241,     4.621,     0.000,     0.000,     0.000,     0.000,   3,1,0
  2564,'99',1,   6,  99,     2.408,     1.204,     0.000,     0.000,     0.000,     0.000,   3,1,0
  2567,'99',1,   6,  99,    13.483,     6.742,     0.000,     0.000,     0.000,     0.000,   3,1,0
  2568,'99',1,   6,  99,     6.183,     3.092,     0.000,     0.000,     0.000,     0.000,   3,1,0
  2571,'99',1,   6,  99,     2.359,     1.180,     0.000,     0.000,     0.000,     0.000,   3,1,0
  2572,'99',1,   6,  99,     7.851,     3.926,     0.000,     0.000,     0.000,     0.000,   3,1,0
  2573,'99',1,   6,  99,     4.319,     2.160,     0.000,     0.000,     0.000,     0.000,   3,1,0
  2576,'99',1,   6,  99,    14.342,     7.171,     0.000,     0.000,     0.000,     0.000,   3,1,0
  2578,'99',1,   6,  99,     1.054,     0.527,     0.000,     0.000,     0.000,     0.000,   3,1,0
  2579,'99',1,   6,  99,     6.259,     3.130,     0.000,     0.000,     0.000,     0.000,   3,1,0
  2582,'99',1,   6,  99,     2.984,     1.492,     0.000,     0.000,     0.000,     0.000,   3,1,0
  2585,'99',1,   6,  99,     6.536,     3.268,     0.000,     0.000,     0.000,     0.000,   3,1,0
  2588,'99',1,   6,  99,    11.219,     5.610,     0.000,     0.000,     0.000,     0.000,   3,1,0
  2589,'99',1,   6,  99,     7.098,     3.549,     0.000,     0.000,     0.000,     0.000,   3,1,0
  2598,'99',1,   6,  99,    11.379,     5.690,     0.000,     0.000,     0.000,     0.000,   3,1,0
  2605,'99',1,  29,  99,     1.359,     0.679,     0.000,     0.000,     0.000,     0.000,  17,1,0
  2621,'99',1,  42,  99,     0.012,     0.006,     0.000,     0.000,     0.000,     0.000, 371,1,0
  2622,'99',1,  42,  99,     0.012,     0.006,     0.000,     0.000,     0.000,     0.000, 371,1,0
  2623,'99',1,  42,  99,     0.009,     0.005,     0.000,     0.000,     0.000,     0.000, 371,1,0
  2624,'99',1,  42,  99,     0.012,     0.006,     0.000,     0.000,     0.000,     0.000, 371,1,0
  2625,'99',1,  42,  99,     0.016,     0.008,     0.000,     0.000,     0.000,     0.000, 371,1,0
  2690,'99',1,  54,  99,     9.717,     4.859,     0.000,     0.000,     0.000,     0.000,  17,1,0
  2716,'99',1,  42,  99,     1.161,     0.580,     0.000,     0.000,     0.000,     0.000, 391,1,0
  2763,'99',1,  53,  99,     0.196,     0.098,     0.000,     0.000,     0.000,     0.000, 190,1,0
  2771,'99',1,  33,  99,     0.457,     0.228,     0.000,     0.000,     0.000,     0.000,  17,1,0
  2779,'99',1,  40,  99,     2.078,     1.039,     0.000,     0.000,     0.000,     0.000,  17,1,0
  2780,'99',1,  35,  99,     3.616,     1.808,     0.000,     0.000,     0.000,     0.000,  17,1,0
  2834,'99',1,  33,  99,    17.804,     8.903,     0.000,     0.000,     0.000,     0.000,  40,1,0
  2858,'99',1,  27,  99,     4.910,     2.456,     0.000,     0.000,     0.000,     0.000, 321,1,0
  2878,'99',1,  61,  99,     0.735,     0.368,     0.000,     0.000,     0.000,     0.000,  17,1,0
  2879,'99',1,  61,  99,     0.735,     0.368,     0.000,     0.000,     0.000,     0.000,  17,1,0
  2901,'99',1,  53,  99,     0.009,     0.004,     0.000,     0.000,     0.000,     0.000,  44,1,0
  2920,'99',1,  61,  99,     4.549,     2.275,     0.000,     0.000,     0.000,     0.000,  17,1,0
  2921,'99',1,  61,  99,     4.549,     2.275,     0.000,     0.000,     0.000,     0.000,  17,1,0
  2934,'99',1,  33,  99,    17.804,     8.903,     0.000,     0.000,     0.000,     0.000,  40,1,0
  3017,'99',1,  29,  99,     7.937,     3.969,     0.000,     0.000,     0.000,     0.000,  17,1,0
  3020,'99',1,  29,  99,    10.113,     5.057,     0.000,     0.000,     0.000,     0.000,  17,1,0
  3036,'99',1,  30,  99,     5.816,     2.908,     0.000,     0.000,     0.000,     0.000,  17,1,0
  3038,'99',1,  30,  99,     3.438,     1.719,     0.000,     0.000,     0.000,     0.000,  17,1,0
  3040,'99',1,  60,  99,    13.757,     6.879,     0.000,     0.000,     0.000,     0.000,  17,1,0
...
0 / END OF LOAD DATA, BEGIN FIXED SHUNT DATA
  1089,'1 ',0,     0.000,    36.000
0 / END OF FIXED SHUNT DATA, BEGIN GENERATOR DATA
    14,'1 ',    13.877,    -3.327,     8.200,    -5.600,1.02500,     0,    21.000, 0.00000E+0, 1.30000E-1, 0.00000E+0, 0.00000E+0,1.00000,1,  100.0,    17.000,     6.000,   4,1.0000
    33,'1 ',     0.000,     0.000,     4.100,    -2.800,1.02200,     0,     9.300, 2.00000E-3, 2.10000E-1, 0.00000E+0, 0.00000E+0,1.00000,0,  100.0,     8.400,    -0.500,  17,1.0000
    33,'2 ',     0.000,     0.000,     4.100,    -2.800,1.02200,     0,     9.300, 2.00000E-3, 2.20000E-1, 0.00000E+0, 0.00000E+0,1.00000,0,  100.0,     8.400,    -0.500,  17,1.0000
    43,'1 ',    -0.437,     0.000,     0.000,     0.000,1.03000,     0,     4.000, 0.00000E+0, 2.50000E-1, 0.00000E+0, 0.00000E+0,1.00000,1,  100.0,     0.000,    -4.000,  29,1.0000
    43,'2 ',    -0.437,     0.000,     0.000,     0.000,1.03000,     0,     4.000, 0.00000E+0, 2.50000E-1, 0.00000E+0, 0.00000E+0,1.00000,1,  100.0,     0.000,    -4.000,  29,1.0000
    43,'3 ',    -0.437,     0.000,     0.000,     0.000,1.03000,     0,     4.000, 0.00000E+0, 2.50000E-1, 0.00000E+0, 0.00000E+0,1.00000,1,  100.0,     0.000,    -4.000,  29,1.0000
    43,'4 ',    -0.437,     0.000,     0.000,     0.000,1.03000,     0,     4.000, 0.00000E+0, 2.50000E-1, 0.00000E+0, 0.00000E+0,1.00000,1,  100.0,     0.000,    -4.000,  29,1.0000
    43,'G1',    96.000,    33.996,    41.900,   -28.400,1.03000,     0,    96.100, 1.66000E-3, 2.10000E-1, 0.00000E+0, 0.00000E+0,1.00000,1,  100.0,    96.000,     0.000,  29,1.0000
    43,'G2',    -0.874,    -4.100,    -4.100,    -4.100,1.03000,     0,     9.000, 0.00000E+0, 1.67000E-1, 0.00000E+0, 0.00000E+0,1.00000,1,  100.0,     0.000,    -9.000,  29,1.0000
    43,'GT',    99.400,    35.200,    48.100,   -32.700,1.03000,     0,   110.400, 4.00000E-3, 2.19000E-1, 0.00000E+0, 0.00000E+0,1.00000,1,  100.0,    99.400,    20.000,  29,1.0000
    43,'M1',    -1.312,     0.000,     0.000,     0.000,1.03000,     0,    12.800, 0.00000E+0, 3.20000E-1, 0.00000E+0, 0.00000E+0,1.00000,1,  100.0,     0.000,   -11.190,  29,1.0000
    43,'M2',    -1.312,     0.000,     0.000,     0.000,1.03000,     0,    12.800, 0.00000E+0, 3.20000E-1, 0.00000E+0, 0.00000E+0,1.00000,1,  100.0,     0.000,   -11.190,  29,1.0000
    43,'M3',    -1.312,     0.000,     0.000,     0.000,1.03000,     0,    12.800, 0.00000E+0, 3.20000E-1, 0.00000E+0, 0.00000E+0,1.00000,1,  100.0,     0.000,   -11.190,  29,1.0000
    43,'M4',    -1.312,     0.000,     0.000,     0.000,1.03000,     0,    12.800, 0.00000E+0, 3.20000E-1, 0.00000E+0, 0.00000E+0,1.00000,1,  100.0,     0.000,   -11.190,  29,1.0000
    43,'M5',    -1.312,     0.000,     0.000,     0.000,1.03000,     0,    12.800, 0.00000E+0, 3.20000E-1, 0.00000E+0, 0.00000E+0,1.00000,1,  100.0,     0.000,   -11.190,  29,1.0000
    43,'M6',    -2.623,     0.000,     0.000,     0.000,1.03000,     0,    25.600, 0.00000E+0, 2.33000E-1, 0.00000E+0, 0.00000E+0,1.00000,1,  100.0,     0.000,   -25.600,  29,1.0000
    43,'ST',    10.000,     2.347,    46.300,   -31.400,1.03000,     0,   106.300, 3.84000E-3, 1.80000E-1, 0.00000E+0, 0.00000E+0,1.00000,0,  100.0,    95.700,    10.000,  29,1.0000
    50,'1 ',    38.549,    31.000,    31.000,   -21.100,1.03000,     0,    71.200, 0.00000E+0, 1.81000E-1, 0.00000E+0, 0.00000E+0,1.00000,1,  100.0,    64.100,    20.000, 211,1.0000
    61,'G1',    94.410,    48.200,    48.200,   -32.700,1.05000,     0,   110.600, 0.00000E+0, 3.00000E-1, 0.00000E+0, 0.00000E+0,1.00000,1,  100.0,    99.500,     0.000, 191,1.0000
    61,'G2',     4.100,    -8.964,    48.200,   -32.700,1.05000,     0,   110.600, 0.00000E+0, 3.00000E-1, 0.00000E+0, 0.00000E+0,1.00000,0,  100.0,    99.500,     0.000, 191,1.0000
    61,'GT',    30.400,   -28.700,    42.300,   -28.700,1.05000,     0,    97.000, 4.00000E-3, 2.00000E-1, 0.00000E+0, 0.00000E+0,1.00000,0,  100.0,    95.000,    17.000, 191,1.0000
    61,'M1',    -1.469,     0.000,     0.000,    -5.800,1.05000,     0,     9.900, 6.40000E-3, 1.98000E-1, 0.00000E+0, 0.00000E+0,1.00000,1,  100.0,     0.000,    -9.698, 191,1.0000
    61,'M2',    -1.837,     0.000,     0.000,     0.000,1.05000,     0,    12.500, 5.50000E-3, 2.50000E-1, 0.00000E+0, 0.00000E+0,1.00000,1,  100.0,     0.000,   -12.520, 191,1.0000
    61,'ST',    14.300,   -15.000,    23.800,   -15.000,1.05000,     0,    50.600, 5.00000E-3, 2.00000E-1, 0.00000E+0, 0.00000E+0,1.00000,0,  100.0,    45.500,    12.000, 191,1.0000
   102,'1 ',    13.200,    -2.025,    28.600,   -19.400,0.97300,     0,    65.500, 1.95000E-3, 3.40000E-1, 0.00000E+0, 0.00000E+0,1.00000,0,  100.0,    60.000,     0.000,  17,1.0000
   108,'2 ',    26.367,    -5.376,    28.600,   -19.400,0.97200,     0,    65.500, 1.95000E-3, 3.40000E-1, 0.00000E+0, 0.00000E+0,1.00000,1,  100.0,    60.000,     0.000,  17,1.0000
   130,'3A',   271.192,    -0.797,   188.900,  -128.200,1.01600,     0,   483.300, 5.10000E-3, 2.07000E-1, 0.00000E+0, 0.00000E+0,1.00000,1,  100.0,   395.000,   155.500,  17,1.0000
   151,'1 ',    90.202,   -18.713,    80.200,   -54.400,0.98000,     0,   184.000, 2.00000E-3, 2.42000E-1, 0.00000E+0, 0.00000E+0,1.00000,1,  100.0,   160.000,     0.000,  17,1.0000
   154,'2 ',    45.100,    16.889,    90.200,   -61.200,0.98000,     0,   207.000, 2.00000E-3, 3.30000E-1, 0.00000E+0, 0.00000E+0,1.00000,0,  100.0,   190.000,    -3.100,  17,1.0000
   172,'1 ',     5.600,    -1.800,     2.700,    -1.800,1.02500,     0,     6.300, 2.00000E-3, 2.00000E-1, 0.00000E+0, 0.00000E+0,1.00000,1,  100.0,     5.600,     0.000,  17,1.0000
   172,'2 ',     3.400,    -1.100,     1.600,    -1.100,1.02500,     0,     3.800, 2.00000E-3, 2.00000E-1, 0.00000E+0, 0.00000E+0,1.00000,1,  100.0,     3.400,     0.000,  17,1.0000
   172,'3 ',     3.400,    -1.100,     1.600,    -1.100,1.02500,     0,     3.800, 2.00000E-3, 2.00000E-1, 0.00000E+0, 0.00000E+0,1.00000,1,  100.0,     3.400,     0.000,  17,1.0000
   172,'4 ',     1.763,    -1.800,     2.700,    -1.800,1.02500,     0,     6.300, 2.00000E-3, 2.00000E-1, 0.00000E+0, 0.00000E+0,1.00000,1,  100.0,     5.600,     0.000,  17,1.0000
   174,'1 ',     0.000,     0.000,    31.600,   -18.000,1.04663,     0,    54.600, 2.00000E-3, 2.20000E-1, 0.00000E+0, 0.00000E+0,1.00000,0,  100.0,    50.000,     0.000,  17,1.0000
   176,'1 ',     1.230,     8.700,     8.700,    -5.900,1.04775,     0,    20.000, 1.00000E-3, 2.50000E-1, 0.00000E+0, 0.00000E+0,1.00000,1,  100.0,    18.000,    -0.500, 194,1.0000
   176,'2 ',    15.000,     6.662,     9.600,    -5.800,1.04775,     0,    20.000, 1.00000E-3, 3.30000E-1, 0.00000E+0, 0.00000E+0,1.00000,0,  100.0,    18.000,    -2.000, 194,1.0000
   181,'2 ',    16.200,     0.757,     7.800,    -5.300,1.00000,     0,    15.000, 2.00000E-3, 1.70000E-1, 0.00000E+0, 0.00000E+0,1.00000,1,  100.0,    16.200,     0.000,  17,1.0000
   181,'3 ',    18.000,     0.841,     8.700,    -5.900,1.00000,     0,    15.000, 2.00000E-3, 1.70000E-1, 0.00000E+0, 0.00000E+0,1.00000,1,  100.0,    18.000,     0.000,  17,1.0000
   181,'4A',    14.577,     0.681,    12.800,    -8.700,1.00000,     0,    31.100, 1.00000E-3, 3.70000E-1, 0.00000E+0, 0.00000E+0,1.00000,1,  100.0,    26.500,    -0.500,  17,1.0000
   183,'1 ',    13.563,    -5.300,     7.800,    -5.300,1.01500,     0,    18.000, 2.00000E-3, 2.10000E-1, 0.00000E+0, 0.00000E+0,1.00000,1,  100.0,    17.400,     0.000,  17,1.0000
   189,'1 ',    -6.305,     0.000,     0.000,     0.000,1.00000,     0,    15.000, 0.00000E+0, 2.50000E-1, 0.00000E+0, 0.00000E+0,1.00000,1,  100.0,     0.000,   -15.000,  17,1.0000
   189,'2 ',    -6.305,     0.000,     0.000,     0.000,1.00000,     0,    15.000, 0.00000E+0, 2.50000E-1, 0.00000E+0, 0.00000E+0,1.00000,1,  100.0,     0.000,   -15.000,  17,1.0000
   190,'2A',     0.000,     0.000,    27.100,   -18.400,1.00000,     0,    62.200, 1.00000E-3, 3.20000E-1, 0.00000E+0, 0.00000E+0,1.00000,0,  100.0,    56.000,     0.000,  17,1.0000
   196,'1 ',     5.000,     1.900,     1.900,    -1.300,1.04786,     0,     4.300, 2.00000E-3, 2.00000E-1, 0.00000E+0, 0.00000E+0,1.00000,1,  100.0,     5.000,     0.000,  17,1.0000
   196,'2 ',     5.000,     1.900,     1.900,    -1.300,1.04786,     0,     4.300, 2.00000E-3, 2.00000E-1, 0.00000E+0, 0.00000E+0,1.00000,1,  100.0,     5.000,     0.000,  17,1.0000
   196,'3 ',     7.112,     2.994,     4.900,    -3.300,1.04786,     0,    11.300, 2.00000E-3, 3.00000E-1, 0.00000E+0, 0.00000E+0,1.00000,1,  100.0,    10.000,     0.000,  17,1.0000
   197,'2 ',     0.000,     5.659,    15.300,   -10.400,1.04761,     0,    35.000, 2.00000E-3, 2.00000E-1, 0.00000E+0, 0.00000E+0,1.00000,1,  100.0,    33.000,    -1.000,  17,1.0000
   214,'1 ',     0.000,     0.000,     6.500,    -4.400,1.03415,     0,    15.000, 2.00000E-3, 1.60000E-1, 0.00000E+0, 0.00000E+0,1.00000,0,  100.0,    14.100,     0.000,  17,1.0000
   222,'1 ',     9.744,     0.734,     4.900,    -3.300,1.03000,     0,    11.300, 2.00000E-3, 2.50000E-1, 0.00000E+0, 0.00000E+0,1.00000,1,  100.0,    11.000,     0.000,  17,1.0000
   248,'1 ',   100.800,    27.044,    48.800,   -33.100,1.04000,     0,   112.000, 0.00000E+0, 2.27100E-1, 0.00000E+0, 0.00000E+0,1.00000,1,  100.0,   100.800,    16.000,  36,1.0000
   248,'2 ',    32.500,     8.719,    48.800,   -33.100,1.04000,     0,   112.000, 0.00000E+0, 2.27100E-1, 0.00000E+0, 0.00000E+0,1.00000,1,  100.0,   100.800,    16.000,  36,1.0000
   255,'1 ',     2.225,     0.000,     0.000,     0.000,1.02560,     0,    14.000, 3.00000E-1, 2.30000E-1, 0.00000E+0, 0.00000E+0,1.00000,1,  100.0,    11.300,     0.000,  17,1.0000
   265,'1 ',     1.962,     0.000,     0.000,     0.000,1.02551,     0,    13.800, 3.00000E-1, 2.30000E-1, 0.00000E+0, 0.00000E+0,1.00000,1,  100.0,    10.100,     0.000,  17,1.0000
   268,'1 ',    -2.245,     0.000,     0.000,     0.000,1.00000,     0,    22.400, 0.00000E+0, 1.60000E-1, 0.00000E+0, 0.00000E+0,1.00000,1,  100.0,     0.000,   -22.400,  17,1.0000
   268,'E1',    -0.225,    -0.112,     0.000,     0.000,1.00000,     0,     2.600, 0.00000E+0, 1.60000E-1, 0.00000E+0, 0.00000E+0,1.00000,0,  100.0,     0.000,    -2.600,  17,1.0000
   268,'F1',    -0.674,     0.000,     0.000,     0.000,1.00000,     0,     8.200, 0.00000E+0, 1.60000E-1, 0.00000E+0, 0.00000E+0,1.00000,1,  100.0,     0.000,    -8.200,  17,1.0000
   268,'F2',    -0.674,     0.000,     0.000,     0.000,1.00000,     0,     8.200, 0.00000E+0, 1.60000E-1, 0.00000E+0, 0.00000E+0,1.00000,1,  100.0,     0.000,    -8.200,  17,1.0000
   287,'1 ',   -13.696,     0.000,     0.000,     0.000,1.01747,     0,    22.400, 0.00000E+0, 1.60000E-1, 0.00000E+0, 0.00000E+0,1.00000,1,  100.0,     0.000,   -22.400,  17,1.0000
   287,'E2',    -0.721,     0.000,     0.000,     0.000,1.01747,     0,     2.600, 0.00000E+0, 1.60000E-1, 0.00000E+0, 0.00000E+0,1.00000,1,  100.0,     0.000,    -2.600,  17,1.0000
   288,'1 ',    -2.245,     0.000,     0.000,     0.000,1.00723,     0,    22.400, 0.00000E+0, 1.60000E-1, 0.00000E+0, 0.00000E+0,1.00000,1,  100.0,     0.000,   -22.400,  17,1.0000
   289,'1 ',    -1.796,     0.000,     0.000,     0.000,1.00747,     0,    18.700, 0.00000E+0, 2.11000E-1, 0.00000E+0, 0.00000E+0,1.00000,1,  100.0,     0.000,   -18.700,  17,1.0000
   289,'2 ',    -1.796,     0.000,     0.000,     0.000,1.00747,     0,    18.700, 0.00000E+0, 2.11000E-1, 0.00000E+0, 0.00000E+0,1.00000,1,  100.0,     0.000,   -18.700,  17,1.0000
   332,'1 ',     6.895,    -1.018,     5.500,    -3.700,1.04763,     0,    12.500, 0.00000E+0, 1.30000E-1, 0.00000E+0, 0.00000E+0,1.00000,1,  100.0,    11.300,     0.000,   4,1.0000
   342,'4A',   278.790,    17.636,   181.000,  -123.000,1.01500,     0,   483.000, 2.00000E-3, 2.50000E-1, 0.00000E+0, 0.00000E+0,1.00000,1,  100.0,   430.000,   169.000,  17,1.0000
   345,'5A',   312.239,    20.924,   181.000,  -123.000,1.01500,     0,   483.700, 2.00000E-3, 2.50000E-1, 0.00000E+0, 0.00000E+0,1.00000,1,  100.0,   435.400,   150.000,  17,1.0000
   350,'6A',   331.364,    26.248,   210.000,   -50.000,1.01500,     0,   472.800, 2.00000E-3, 2.47000E-1, 0.00000E+0, 0.00000E+0,1.00000,1,  100.0,   425.000,   150.000,  17,1.0000
   377,'1 ',     0.000,     0.000,     2.400,    -1.600,1.03085,     0,     5.600, 2.00000E-3, 2.00000E-1, 0.00000E+0, 0.00000E+0,1.00000,0,  100.0,     5.000,     0.000,  17,1.0000
   381,'1 ',     0.000,     0.000,     1.700,    -1.200,1.04255,     0,     4.000, 2.00000E-3, 2.00000E-1, 0.00000E+0, 0.00000E+0,1.00000,0,  100.0,     3.600,     0.000,  17,1.0000
   383,'1 ',   106.214,   -27.880,    48.000,   -37.000,1.01800,     0,   165.000, 7.40000E-3, 1.41000E-1, 0.00000E+0, 0.00000E+0,1.00000,1,  100.0,   158.000,    55.000,  17,1.0000
   383,'2 ',    57.000,    -2.402,    53.000,   -47.000,1.01800,     0,   171.000, 7.40000E-3, 1.41000E-1, 0.00000E+0, 0.00000E+0,1.00000,0,  100.0,   163.000,    57.000,  17,1.0000
   383,'3 ',    50.000,    -2.107,    35.000,   -43.000,1.01800,     0,   157.000, 7.50000E-3, 1.31000E-1, 0.00000E+0, 0.00000E+0,1.00000,0,  100.0,   133.000,    50.000,  17,1.0000
   403,'3 ',   154.000,   -99.900,   310.400,   -99.900,1.03500,   610,   586.000, 4.00000E-3, 2.77000E-1, 0.00000E+0, 0.00000E+0,1.00000,1,  100.0,   498.000,   142.000,  17,1.0000
   405,'1 ',    81.900,   -24.700,    25.800,   -24.700,1.05000,     0,    93.900, 3.30000E-3, 1.60000E-1, 0.00000E+0, 0.00000E+0,1.00000,1,  100.0,    82.500,     8.000, 251,1.0000
   407,'1 ',     4.266,     1.444,     6.000,    -4.100,1.02756,     0,    13.800, 0.00000E+0, 2.30000E-1, 0.00000E+0, 0.00000E+0,1.00000,1,  100.0,    12.400,     0.000,  17,1.0000
   408,'1 ',    24.351,     6.451,    15.400,   -10.500,1.02671,     0,    35.300, 0.00000E+0, 1.80000E-1, 0.00000E+0, 0.00000E+0,1.00000,1,  100.0,    31.800,     0.000,  17,1.0000
   414,'1 ',     4.824,    -0.361,    10.000,    -6.800,1.02000,     0,    22.800, 0.00000E+0, 2.40000E-1, 0.00000E+0, 0.00000E+0,1.00000,1,  100.0,    20.600,     0.000,  17,1.0000
   422,'1A',   369.714,    20.629,   208.000,  -110.000,1.00000,     0,   477.000, 5.07000E-3, 3.00000E-1, 0.00000E+0, 0.00000E+0,1.00000,1,  100.0,   415.000,   164.000,  17,1.0000
   424,'2A',   371.500,    21.593,   208.000,  -110.000,1.00000,     0,   477.000, 5.07000E-3, 3.00000E-1, 0.00000E+0, 0.00000E+0,1.00000,1,  100.0,   415.000,   199.000,  17,1.0000
   450,'1 ',     0.011,     1.596,     2.400,    -1.600,1.04788,     0,     7.000, 0.00000E+0, 2.00000E-1, 0.00000E+0, 0.00000E+0,1.00000,1,  100.0,     6.300,     0.000,  17,1.0000
   479,'1 ',     0.000,     0.000,     8.700,    -5.900,1.04761,     0,    20.000, 2.00000E-3, 2.50000E-1, 0.00000E+0, 0.00000E+0,1.00000,0,  100.0,    18.000,    -1.000,  17,1.0000
   490,'3 ',   453.378,   130.466,   255.400,  -173.300,1.01100,     0,   586.000, 1.89000E-3, 2.77000E-1, 0.00000E+0, 0.00000E+0,1.00000,1,  100.0,   527.400,   142.000,   5,1.0000
   491,'1 ',   363.690,    68.317,   138.400,   -34.400,1.00700,     0,   482.400, 1.89000E-3, 2.50000E-1, 0.00000E+0, 0.00000E+0,1.00000,1,  100.0,   422.000,   123.600,   5,1.0000
   492,'2A',   363.041,    49.135,   208.000,  -112.000,1.01000,     0,   482.400, 1.85000E-3, 2.50000E-1, 0.00000E+0, 0.00000E+0,1.00000,1,  100.0,   422.000,   200.000,   5,1.0000
   680,'1 ',    56.300,     5.334,    27.200,   -18.500,1.02000,     0,    62.500, 0.00000E+0, 2.10000E-1, 0.00000E+0, 0.00000E+0,1.00000,1,  100.0,    56.300,     0.000,  17,1.0000
   680,'10',    17.653,     1.673,    15.400,   -10.500,1.02000,     0,    35.400, 0.00000E+0, 2.20000E-1, 0.00000E+0, 0.00000E+0,1.00000,1,  100.0,    31.900,    12.000,  17,1.0000
   680,'11',     0.000,     0.000,    15.400,   -10.500,1.02000,     0,    35.400, 0.00000E+0, 2.20000E-1, 0.00000E+0, 0.00000E+0,1.00000,0,  100.0,    31.900,    12.000,  17,1.0000
   680,'12',     0.000,     0.000,    18.600,   -12.600,1.02000,     0,    42.600, 0.00000E+0, 1.60000E-1, 0.00000E+0, 0.00000E+0,1.00000,0,  100.0,    38.300,     4.000,  17,1.0000
   680,'14',     0.000,     0.000,    27.700,   -12.600,1.02000,     0,    67.500, 1.40000E-3, 1.90000E-1, 0.00000E+0, 0.00000E+0,1.00000,0,  100.0,    45.000,    17.000,  17,1.0000
   680,'15',     0.000,     0.000,    22.000,   -14.100,1.02000,     0,    71.200, 5.30000E-3, 1.44000E-1, 0.00000E+0, 0.00000E+0,1.00000,0,  100.0,    43.000,    17.000,  17,1.0000
   680,'3 ',     0.000,     0.000,    18.500,   -12.600,1.02000,     0,    42.600, 0.00000E+0, 1.60000E-1, 0.00000E+0, 0.00000E+0,1.00000,0,  100.0,    38.300,     4.000,  17,1.0000
   680,'9 ',     0.000,     0.000,    19.600,   -13.300,1.02000,     0,    44.900, 0.00000E+0, 2.60000E-1, 0.00000E+0, 0.00000E+0,1.00000,0,  100.0,    40.400,     0.000,  17,1.0000
  1031,'1 ',     0.000,     0.000,    13.900,    -9.500,1.02000,     0,    32.000, 3.50000E-3, 7.00000E-2, 0.00000E+0, 0.00000E+0,1.00000,0,  100.0,    28.800,     4.000,   1,1.0000
  1032,'2 ',     6.829,     0.033,    25.000,   -18.000,1.02000,     0,    49.000, 7.20000E-3, 1.45000E-1, 0.00000E+0, 0.00000E+0,1.00000,1,  100.0,    44.100,     4.000,   1,1.0000
  1033,'3 ',     0.000,     0.000,     9.500,    -6.400,1.02000,     0,    21.700, 4.50000E-3, 9.00000E-2, 0.00000E+0, 0.00000E+0,1.00000,0,  100.0,    19.500,     3.000,   1,1.0000
  1035,'4 ',    33.723,   -17.300,    25.500,   -17.300,1.02000,     0,    58.600, 1.40000E-3, 1.62000E-1, 0.00000E+0, 0.00000E+0,1.00000,1,  100.0,    52.700,     9.000,  21,1.0000
  1037,'5 ',    23.988,    -6.351,    25.500,   -17.300,1.02000,     0,    60.000, 1.40000E-3, 1.98000E-1, 0.00000E+0, 0.00000E+0,1.00000,1,  100.0,    52.700,     2.000,  21,1.0000
  1087,'2 ',     5.000,    -9.200,    13.400,    -9.200,1.00000,     0,    29.500, 6.00000E-3, 1.40000E-1, 0.00000E+0, 0.00000E+0,1.00000,0,  100.0,    25.100,     5.000,  33,1.0000
  1089,'1A',    29.031,   -13.900,    20.500,   -13.900,1.00000,     0,    47.100, 9.30000E-3, 1.88000E-1, 0.00000E+0, 0.00000E+0,1.00000,1,  100.0,    40.000,     2.270,  33,1.0000
  1101,'2 ',    16.139,    -9.500,    13.900,    -9.500,1.05000,     0,    32.000, 3.10000E-3, 1.98000E-1, 0.00000E+0, 0.00000E+0,1.00000,1,  100.0,    28.800,     0.000,  30,1.0000
  1146,'1A',    15.280,   -16.200,    30.000,   -16.200,1.01000,     0,    57.900, 0.00000E+0, 1.55000E-1, 0.00000E+0, 0.00000E+0,1.00000,1,  100.0,    49.200,    10.000,  39,1.0000
  1148,'1 ',    28.518,   -29.719,    72.600,   -49.300,1.02600,     0,   167.000, 3.00000E-3, 1.85000E-1, 0.00000E+0, 0.00000E+0,1.00000,1,  100.0,   151.100,     0.000,   1,1.0000
  1167,'1 ',     0.000,     0.000,     5.400,    -3.700,1.03000,     0,    12.500, 4.50000E-3, 1.68000E-1, 0.00000E+0, 0.00000E+0,1.00000,0,  100.0,    11.300,     0.750,   1,1.0000
  1168,'2 ',     0.000,     0.000,     4.100,    -3.700,1.00000,     0,     9.400, 5.00000E-3, 1.68000E-1, 0.00000E+0, 0.00000E+0,1.00000,0,  100.0,     8.400,     0.750,   1,1.0000
  1171,'1 ',     0.000,     0.000,    25.500,   -17.300,1.02000,     0,    60.000, 1.40000E-3, 1.98000E-1, 0.00000E+0, 0.00000E+0,1.00000,0,  100.0,    52.700,     9.000,   1,1.0000
  1173,'2 ',     2.000,   -17.300,    25.500,   -17.300,1.00000,     0,    72.000, 5.00000E-4, 1.60000E-1, 0.00000E+0, 0.00000E+0,1.00000,1,  100.0,    52.700,     2.000,   1,1.0000
  1205,'1 ',   100.000,    12.838,    44.800,   -30.400,1.10000,     0,   102.800, 4.00000E-3, 2.30000E-1, 0.00000E+0, 0.00000E+0,1.00000,1,  100.0,   100.000,    16.450,   9,1.0000
  1205,'11',    22.000,     2.824,    27.000,   -13.000,1.10000,     0,    33.800, 4.50000E-3, 1.47000E-1, 0.00000E+0, 0.00000E+0,1.00000,1,  100.0,    22.000,     2.000,   9,1.0000
  1205,'12',    86.000,    11.040,    39.700,   -30.000,1.10000,     0,    93.800, 3.40000E-3, 1.36000E-1, 0.00000E+0, 0.00000E+0,1.00000,1,  100.0,    86.000,    23.000,   9,1.0000
  1205,'15',     0.000,     0.000,     0.000,     0.000,1.10000,     0,    10.000, 0.00000E+0, 2.75000E-1, 0.00000E+0, 0.00000E+0,1.00000,0,  100.0,     0.000,    -8.000,   9,1.0000
  1205,'16',     0.000,     0.000,     0.000,     0.000,1.10000,     0,    10.000, 0.00000E+0, 2.75000E-1, 0.00000E+0, 0.00000E+0,1.00000,0,  100.0,     0.000,   -10.000,   9,1.0000
...